/*--------------------------------*- C++ -*----------------------------------*\
| =========                 |                                                 |
| \\      /  F ield         | OpenFOAM: The Open Source CFD Toolbox           |
|  \\    /   O peration     | Version:  2.2.2                                 |
|   \\  /    A nd           | Web:      www.OpenFOAM.org                      |
|    \\/     M anipulation  |                                                 |
\*---------------------------------------------------------------------------*/
FoamFile
{
    version     2.0;
    format      ascii;
    class       dictionary;
    location    "system";
    object      diagLevelDict;
}
// * * * * * * * * * * * * * * * * * * * * * * * * * * * * * * * * * * * * * //

ReportDiags				true;
GenericDebug			true;
CalcRelevantDirsDiag	true;
AspectRatioDiag			false;
CellLengthDiag			false;
BoundaryCellInfoDiag	true;
InternalFaceInfoDiag	true;
SwitchDiag				true;
SplitSidesDiag			true;
SplitSidesDiag_Extended	false;
CreateIntFacesDiag		true;
SetRefinementDiag		false;
SetRefinementDiag_Titles	true;
SetRefinementDiag_Reasons	false;
SetRefinementDiag_Part3		true;


// ************************************************************************* //
